Version 4
SHEET 1 992 680
WIRE 160 -64 -96 -64
WIRE 496 -64 240 -64
WIRE -96 80 -96 -64
WIRE 96 80 -96 80
WIRE 352 80 320 80
WIRE 496 80 496 -64
WIRE 496 80 432 80
WIRE -96 96 -96 80
WIRE 96 144 64 144
WIRE 496 144 496 80
WIRE 496 144 320 144
WIRE 496 160 496 144
WIRE 96 208 -16 208
WIRE 416 208 320 208
WIRE -16 240 -16 208
WIRE 416 256 416 208
WIRE 496 256 496 240
WIRE 496 256 416 256
WIRE 624 256 496 256
WIRE 656 256 624 256
WIRE 64 272 64 144
WIRE 96 272 64 272
WIRE 368 272 320 272
WIRE 496 288 496 256
WIRE 656 320 656 256
WIRE -400 368 -448 368
WIRE -320 368 -400 368
WIRE -96 368 -96 160
WIRE -96 368 -240 368
WIRE 176 368 -96 368
WIRE 368 368 368 272
WIRE 368 368 256 368
WIRE -400 384 -400 368
WIRE -96 384 -96 368
WIRE 368 384 368 368
WIRE -400 480 -400 448
WIRE -96 480 -96 448
WIRE -96 480 -400 480
WIRE -16 480 -16 304
WIRE -16 480 -96 480
WIRE 64 480 64 272
WIRE 64 480 -16 480
WIRE 368 480 368 464
WIRE 368 480 64 480
WIRE 496 480 496 352
WIRE 496 480 368 480
WIRE 656 496 656 400
WIRE -16 512 -16 480
FLAG -16 512 0
FLAG 624 256 Vin
FLAG 656 496 0
FLAG -448 368 Vout
SYMBOL Misc\\DIP8 208 176 R0
SYMATTR InstName MC34063
SYMBOL schottky -112 96 R0
SYMATTR InstName D1
SYMATTR Value 1N5819
SYMBOL cap -112 384 R0
WINDOW 0 -43 20 Left 2
WINDOW 3 -73 58 Left 2
SYMATTR InstName Co
SYMATTR Value 11.45µF
SYMBOL cap -32 240 R0
SYMATTR InstName CT
SYMATTR Value 50.87pF
SYMBOL res 336 96 R270
WINDOW 0 32 56 VTop 2
WINDOW 3 0 56 VBottom 2
SYMATTR InstName R0
SYMATTR Value 180R
SYMBOL res 480 144 R0
SYMATTR InstName Rsc
SYMATTR Value 1.3R
SYMBOL cap 480 288 R0
SYMATTR InstName C1
SYMATTR Value 100µF
SYMBOL ind 144 -48 R270
WINDOW 0 32 56 VTop 2
WINDOW 3 5 56 VBottom 2
SYMATTR InstName L
SYMATTR Value 97.13µH
SYMBOL res 352 368 R0
SYMATTR InstName R1
SYMATTR Value 10k
SYMBOL res 160 384 R270
WINDOW 0 32 56 VTop 2
WINDOW 3 0 56 VBottom 2
SYMATTR InstName R2
SYMATTR Value 150k
SYMBOL voltage 656 304 R0
SYMATTR InstName Vin
SYMATTR Value 18V
SYMBOL ind -336 384 R270
WINDOW 0 32 56 VTop 2
WINDOW 3 5 56 VBottom 2
SYMATTR InstName L2
SYMATTR Value 1µH
SYMBOL cap -416 384 R0
SYMATTR InstName C2
SYMATTR Value 100µF
TEXT -408 312 Left 2 ;LC low pass filter
TEXT -104 -152 Left 2 ;18V to 20V Step Up DC to DC Converter using MC34063
TEXT -368 560 Left 2 ;f = 100kHz; T = 10usec; on time = 1.27usec; Ipeak = 0.23A; Vripple(pk-pk) = 0.1V; Vsat(sw)=0.5V
TEXT -8 592 Left 2 ;Iout=0.1A; VF(zener) = 0.55V
