Version 4
SHEET 1 1000 1448
WIRE -1744 0 -1856 0
WIRE -1616 0 -1680 0
WIRE -1536 0 -1616 0
WIRE -416 0 -1536 0
WIRE -352 0 -416 0
WIRE -336 0 -352 0
WIRE -240 0 -256 0
WIRE -112 0 -240 0
WIRE 80 0 -112 0
WIRE 144 0 80 0
WIRE 320 0 144 0
WIRE 672 0 320 0
WIRE -1616 16 -1616 0
WIRE -1536 16 -1536 0
WIRE 80 16 80 0
WIRE 672 32 672 0
WIRE -1856 48 -1856 0
WIRE 320 48 320 0
WIRE -1616 96 -1616 80
WIRE -1536 96 -1536 80
WIRE -1536 96 -1616 96
WIRE 80 96 80 80
WIRE -816 128 -976 128
WIRE -512 128 -816 128
WIRE -512 160 -512 128
WIRE 144 160 144 0
WIRE 192 160 144 160
WIRE 672 160 672 96
WIRE 672 160 448 160
WIRE 816 160 672 160
WIRE 896 160 816 160
WIRE -432 176 -480 176
WIRE -352 176 -352 0
WIRE -352 176 -432 176
WIRE -1200 192 -1264 192
WIRE -976 192 -976 128
WIRE -976 192 -1200 192
WIRE -752 192 -864 192
WIRE -736 192 -752 192
WIRE -592 192 -656 192
WIRE -544 192 -592 192
WIRE 672 192 672 160
WIRE 896 192 896 160
WIRE -448 208 -480 208
WIRE -944 224 -944 192
WIRE -1264 240 -1264 192
WIRE -976 240 -976 192
WIRE -640 240 -976 240
WIRE -816 256 -816 128
WIRE -512 256 -512 224
WIRE -112 256 -512 256
WIRE -48 256 -112 256
WIRE 80 256 -48 256
WIRE -752 272 -752 192
WIRE -752 272 -784 272
WIRE -48 272 -48 256
WIRE -976 288 -1024 288
WIRE -848 288 -976 288
WIRE -592 288 -592 192
WIRE -560 288 -592 288
WIRE -448 288 -448 208
WIRE -448 288 -480 288
WIRE -752 304 -784 304
WIRE 672 304 672 256
WIRE 896 304 896 272
WIRE 896 304 672 304
WIRE -640 336 -640 240
WIRE -512 336 -640 336
WIRE 320 336 320 272
WIRE 416 336 320 336
WIRE -512 352 -512 336
WIRE -1264 368 -1264 320
WIRE -240 368 -240 0
WIRE -240 368 -480 368
WIRE -976 384 -976 288
WIRE -944 384 -976 384
WIRE -752 384 -752 304
WIRE -752 384 -864 384
WIRE -720 384 -752 384
WIRE -592 384 -640 384
WIRE -544 384 -592 384
WIRE -48 384 -48 352
WIRE 320 384 320 336
WIRE -448 400 -480 400
WIRE 416 400 416 336
WIRE -816 432 -816 320
WIRE -512 432 -512 416
WIRE -512 432 -816 432
WIRE -112 432 -112 256
WIRE -112 432 -512 432
WIRE -48 448 -176 448
WIRE 80 448 80 256
WIRE 80 448 -48 448
WIRE -1248 464 -1392 464
WIRE -1168 464 -1248 464
WIRE -592 464 -592 384
WIRE -560 464 -592 464
WIRE -448 464 -448 400
WIRE -448 464 -480 464
WIRE -1168 496 -1168 464
WIRE -176 528 -176 448
WIRE -208 544 -448 544
WIRE 416 544 416 464
WIRE 0 560 -144 560
WIRE 112 560 80 560
WIRE 160 560 112 560
WIRE 176 560 160 560
WIRE 320 560 320 384
WIRE 320 560 256 560
WIRE -1392 576 -1392 464
WIRE -208 576 -576 576
WIRE -1168 592 -1168 576
WIRE -976 592 -1168 592
WIRE -896 592 -976 592
WIRE -896 608 -896 592
WIRE 160 608 160 560
WIRE -1168 624 -1168 592
WIRE -176 624 -176 592
WIRE 0 656 -16 656
WIRE 96 656 80 656
WIRE 608 704 384 704
WIRE -1392 720 -1392 656
WIRE -896 720 -896 688
WIRE -800 720 -896 720
WIRE -688 720 -800 720
WIRE -576 720 -576 576
WIRE -576 720 -688 720
WIRE -896 736 -896 720
WIRE -448 736 -448 544
WIRE -48 736 -48 448
WIRE -48 736 -176 736
WIRE -1168 752 -1168 688
WIRE 160 768 160 704
WIRE 384 768 384 704
WIRE -448 816 -448 736
WIRE -384 816 -448 816
WIRE 320 816 320 560
WIRE 320 816 -304 816
WIRE -896 848 -896 816
WIRE -1024 864 -1024 288
WIRE 384 896 384 832
WIRE -448 928 -448 896
WIRE -1024 976 -1024 864
WIRE -368 976 -1024 976
WIRE 224 992 160 992
WIRE 384 992 384 976
WIRE 384 992 224 992
WIRE 464 992 384 992
WIRE -976 1024 -976 592
WIRE -368 1024 -368 976
WIRE 160 1024 160 992
WIRE -176 1040 -176 736
WIRE -544 1056 -576 1056
WIRE -208 1056 -544 1056
WIRE -96 1072 -144 1072
WIRE -16 1072 -16 656
WIRE -16 1072 -96 1072
WIRE 16 1072 -16 1072
WIRE -368 1088 -368 1024
WIRE -208 1088 -368 1088
WIRE -976 1120 -976 1104
WIRE -688 1120 -976 1120
WIRE -576 1120 -576 1056
WIRE -576 1120 -688 1120
WIRE -976 1136 -976 1120
WIRE -176 1184 -176 1104
WIRE 160 1184 160 1120
WIRE -976 1248 -976 1216
WIRE -1248 1296 -1248 464
WIRE 608 1296 608 704
WIRE 608 1296 -1248 1296
WIRE -1856 1344 -1856 128
WIRE -1616 1344 -1616 96
WIRE -1616 1344 -1856 1344
WIRE 672 1344 672 304
WIRE 672 1344 -1616 1344
WIRE -1616 1376 -1616 1344
FLAG -1616 1376 0
FLAG 80 96 0
FLAG -176 624 0
FLAG -176 1184 0
FLAG 160 768 0
FLAG 416 544 0
FLAG -448 928 0
FLAG 160 1184 0
FLAG 464 992 CLIMIT
FLAG -1392 720 0
FLAG 896 160 Vout
FLAG -1264 368 0
FLAG -944 224 0
FLAG -48 384 0
FLAG -1168 752 0
FLAG -896 848 0
FLAG -976 1248 0
FLAG -688 720 Vset
FLAG -688 1120 Iset
DATAFLAG 816 160 ""
DATAFLAG -416 0 ""
DATAFLAG -112 0 ""
DATAFLAG -96 1072 ""
DATAFLAG -368 1024 ""
DATAFLAG -1024 864 ""
DATAFLAG 224 992 ""
DATAFLAG 320 384 ""
DATAFLAG -448 736 ""
DATAFLAG 112 560 ""
DATAFLAG -432 176 ""
DATAFLAG -1200 192 ""
DATAFLAG -800 720 ""
DATAFLAG -544 1056 ""
SYMBOL PowerProducts\\LT3080 320 160 R0
SYMATTR InstName U1
SYMBOL voltage -1856 32 R0
SYMATTR InstName Vin
SYMATTR Value 19V
SYMBOL schottky -1744 16 R270
WINDOW 0 32 32 VTop 2
WINDOW 3 0 32 VBottom 2
SYMATTR InstName D1
SYMATTR Value 1N5819
SYMBOL cap -1632 16 R0
SYMATTR InstName C1
SYMATTR Value 22µF
SYMBOL cap -1552 16 R0
SYMATTR InstName C2
SYMATTR Value 22µF
SYMBOL cap 64 16 R0
WINDOW 3 -74 46 Left 2
SYMATTR Value 2.2µF
SYMATTR InstName C3
SYMBOL res -16 576 R270
WINDOW 0 32 56 VTop 2
WINDOW 3 0 56 VBottom 2
SYMATTR InstName R1
SYMATTR Value 1k
SYMBOL res 160 576 R270
WINDOW 0 32 56 VTop 2
WINDOW 3 0 56 VBottom 2
SYMATTR InstName R2
SYMATTR Value 100R
SYMBOL res -16 672 R270
WINDOW 0 32 56 VTop 2
WINDOW 3 0 56 VBottom 2
SYMATTR InstName R3
SYMATTR Value 10k
SYMBOL res -400 832 R270
WINDOW 0 32 56 VTop 2
WINDOW 3 0 56 VBottom 2
SYMATTR InstName R4
SYMATTR Value 15k
SYMBOL res -432 912 R180
WINDOW 0 36 76 Left 2
WINDOW 3 36 40 Left 2
SYMATTR InstName R5
SYMATTR Value 1k
SYMBOL npn 96 608 R0
SYMATTR InstName Q1
SYMATTR Value 2N3904
SYMBOL cap 400 400 R0
SYMATTR InstName C5
SYMATTR Value 22µF
SYMBOL res 0 1088 R270
WINDOW 0 32 56 VTop 2
WINDOW 3 0 56 VBottom 2
SYMATTR InstName R6
SYMATTR Value 10k
SYMBOL npn 96 1024 R0
SYMATTR InstName Q2
SYMATTR Value 2N3904
SYMBOL res 368 880 R0
SYMATTR InstName R7
SYMATTR Value 10k
SYMBOL LED 368 768 R0
SYMATTR InstName D2
SYMBOL voltage -1392 560 R0
SYMATTR InstName Vreg
SYMATTR Value 5.0V
SYMBOL res -352 16 R270
WINDOW 0 32 56 VTop 2
WINDOW 3 0 56 VBottom 2
SYMATTR InstName Rsense
SYMATTR Value 1R
SYMATTR SpiceLine tol=0.1 pwr=10W
SYMBOL res -752 208 R270
WINDOW 0 32 56 VTop 2
WINDOW 3 0 56 VBottom 2
SYMATTR InstName R8
SYMATTR Value 40k
SYMBOL res -960 208 R270
WINDOW 0 32 56 VTop 2
WINDOW 3 0 56 VBottom 2
SYMATTR InstName R9
SYMATTR Value 40k
SYMBOL res -736 400 R270
WINDOW 0 -26 10 VTop 2
WINDOW 3 0 56 VBottom 2
SYMATTR InstName R10
SYMATTR Value 40k
SYMBOL res -960 400 R270
WINDOW 0 32 56 VTop 2
WINDOW 3 0 56 VBottom 2
SYMATTR InstName R11
SYMATTR Value 40k
SYMBOL Opamps\\LT1006 -176 496 R0
SYMATTR InstName U7
SYMBOL Opamps\\LT1006 -176 1008 R0
SYMATTR InstName U8
SYMBOL res -576 304 R270
WINDOW 0 30 20 VTop 2
WINDOW 3 10 16 VBottom 2
SYMATTR InstName R12
SYMATTR Value 25k
SYMBOL res -576 480 R270
WINDOW 0 -19 10 VTop 2
WINDOW 3 0 56 VBottom 2
SYMATTR InstName R13
SYMATTR Value 25k
SYMBOL voltage -1264 224 R0
WINDOW 123 0 0 Left 2
WINDOW 39 0 0 Left 2
SYMATTR InstName VEE
SYMATTR Value -20V
SYMBOL Opamps\\LT1001 -512 256 R180
SYMATTR InstName U2
SYMBOL Opamps\\LT1001 -512 448 R180
SYMATTR InstName U3
SYMBOL Opamps\\LT1001 -816 352 R180
SYMATTR InstName U4
SYMBOL voltage -48 256 R0
WINDOW 123 0 0 Left 2
WINDOW 39 0 0 Left 2
SYMATTR InstName VCC
SYMATTR Value 20V
SYMBOL res 880 176 R0
SYMATTR InstName Rload
SYMATTR Value 1000R
SYMBOL cap 656 192 R0
SYMATTR InstName C4
SYMATTR Value 2.2µF
SYMBOL schottky 688 96 R180
WINDOW 0 24 64 Left 2
WINDOW 3 24 0 Left 2
SYMATTR InstName D3
SYMATTR Value 1N5819
SYMBOL References\\LT1009 -1168 656 R0
SYMATTR InstName U5
SYMBOL res -1184 480 R0
SYMATTR InstName R15
SYMATTR Value 3.3k
SYMBOL res -912 592 R0
SYMATTR InstName R16
SYMATTR Value 15k
SYMBOL res -912 720 R0
SYMATTR InstName R17
SYMATTR Value 10k
SYMBOL res -992 1008 R0
SYMATTR InstName R18
SYMATTR Value 15k
SYMATTR SpiceLine tol=1
SYMBOL res -992 1120 R0
SYMATTR InstName R19
SYMATTR Value 10k
TEXT -1008 464 Left 2 ;Instrumentation Amplifier (Gain =1.0)
TEXT -440 656 Left 2 ;Non-inverting Amplifier (Gain = 16)
TEXT -1472 904 Left 2 !.op
TEXT -832 776 Left 2 ;10kohm trim pot
TEXT -912 1184 Left 2 ;10kohm trim pot
TEXT -1480 760 Left 2 ;+5V from LM7805
TEXT -1544 408 Left 2 ;-20V from MC34063 inverting voltage converter
TEXT -224 232 Left 2 ;+20v from MC34063 boost converter
TEXT -1056 1392 Left 2 ;Adjustable Power Supply Input Voltage = 19V Output Voltage = 0V to 15V
TEXT -840 1432 Left 2 ;Maximum output current = 1.0A
TEXT -1992 168 Left 2 ;Input supply voltage from DC jack
TEXT 200 1032 Left 2 ;Constant Current (CC) LED indicator
TEXT -792 616 Left 2 ;0V to 1V adjustment
TEXT -744 1144 Left 2 ;0A to 1A adjustment
TEXT -1000 568 Left 2 ;+2.5V precision reference
