Version 4
SHEET 1 992 680
WIRE 352 -16 64 -16
WIRE 64 80 64 -16
WIRE 96 80 64 80
WIRE 352 80 352 -16
WIRE 352 80 320 80
WIRE -80 144 -160 144
WIRE 96 144 -80 144
WIRE 352 144 352 80
WIRE 352 144 320 144
WIRE 496 144 352 144
WIRE 496 160 496 144
WIRE -160 208 -160 144
WIRE 96 208 -16 208
WIRE 416 208 320 208
WIRE -80 224 -80 144
WIRE -16 240 -16 208
WIRE 416 256 416 208
WIRE 496 256 496 240
WIRE 496 256 416 256
WIRE 624 256 496 256
WIRE 656 256 624 256
WIRE 96 272 64 272
WIRE 368 272 320 272
WIRE 496 288 496 256
WIRE 656 320 656 256
WIRE -16 336 -16 304
WIRE 64 336 64 272
WIRE 64 336 -16 336
WIRE -400 368 -448 368
WIRE -320 368 -400 368
WIRE -160 368 -160 272
WIRE -160 368 -240 368
WIRE -16 368 -16 336
WIRE -16 368 -160 368
WIRE 176 368 -16 368
WIRE 368 368 368 272
WIRE 368 368 256 368
WIRE -400 384 -400 368
WIRE -160 384 -160 368
WIRE 368 384 368 368
WIRE -400 480 -400 448
WIRE -160 480 -160 448
WIRE -160 480 -400 480
WIRE -80 480 -80 304
WIRE -80 480 -160 480
WIRE -16 480 -80 480
WIRE 368 480 368 464
WIRE 368 480 -16 480
WIRE 496 480 496 352
WIRE 496 480 368 480
WIRE 656 496 656 400
WIRE -16 512 -16 480
FLAG -16 512 0
FLAG 624 256 Vin
FLAG 656 496 0
FLAG -448 368 Vout
SYMBOL Misc\\DIP8 208 176 R0
SYMATTR InstName MC34063
SYMBOL schottky -144 272 R180
WINDOW 0 44 39 Left 2
WINDOW 3 24 0 Left 2
SYMATTR InstName D1
SYMATTR Value 1N5819
SYMBOL res 480 144 R0
SYMATTR InstName Rsc
SYMATTR Value 0.71R
SYMBOL ind -64 320 R180
WINDOW 0 37 53 Left 2
WINDOW 3 22 -4 Left 2
SYMATTR InstName L
SYMATTR Value 231µH
SYMBOL res 352 368 R0
SYMATTR InstName R2
SYMATTR Value 150k
SYMBOL res 160 384 R270
WINDOW 0 32 56 VTop 2
WINDOW 3 0 56 VBottom 2
SYMATTR InstName R1
SYMATTR Value 10k
SYMBOL voltage 656 304 R0
SYMATTR InstName Vin
SYMATTR Value 20V
SYMBOL ind -336 384 R270
WINDOW 0 32 56 VTop 2
WINDOW 3 5 56 VBottom 2
SYMATTR InstName L2
SYMATTR Value 1µH
SYMBOL polcap -144 448 R180
WINDOW 0 24 57 Left 2
WINDOW 3 24 8 Left 2
SYMATTR InstName Co
SYMATTR Value 47.36µF
SYMBOL polcap -384 448 R180
WINDOW 0 24 57 Left 2
WINDOW 3 24 8 Left 2
SYMATTR InstName C2
SYMATTR Value 100µF
SYMBOL polcap -32 240 R0
WINDOW 3 24 56 Left 2
SYMATTR InstName CT
SYMATTR Value 210pF
SYMBOL polcap 480 288 R0
SYMATTR InstName C1
SYMATTR Value 100µF
TEXT -408 312 Left 2 ;LC low pass filter
TEXT -168 -72 Left 2 ;20V to -20V Voltage Inverting DC to DC Converter using MC34063
TEXT -368 560 Left 2 ;f = 100kHz; T = 10usec; on time = 5.26usec; Ipeak = 0.42A; Vripple(pk-pk) = 0.1V; Vsat(sw)=0.5V
TEXT -8 592 Left 2 ;Iout=0.1A; VF(zener) = 0.55V
